Version 4
SHEET 1 1288 680
WIRE 304 -32 224 -32
WIRE 224 -16 224 -32
WIRE 224 80 224 64
WIRE 304 80 304 -32
WIRE -704 96 -704 64
WIRE 96 144 -32 144
WIRE 432 144 352 144
WIRE -592 176 -592 144
WIRE 96 192 -32 192
WIRE 432 208 352 208
WIRE 96 224 -32 224
WIRE -704 272 -704 176
WIRE -464 272 -464 208
WIRE -592 320 -592 256
WIRE 208 320 208 288
WIRE 208 320 160 320
WIRE 256 320 256 288
WIRE 288 320 256 320
WIRE -64 336 -64 320
WIRE 32 336 32 320
WIRE 160 336 160 320
WIRE 288 352 288 320
WIRE -464 400 -464 352
WIRE -64 464 -64 416
WIRE 32 592 32 416
FLAG 304 80 0
FLAG -64 464 0
FLAG 432 208 Y
IOPIN 432 208 Out
FLAG -464 400 0
FLAG -64 320 S0
IOPIN -64 320 Out
FLAG -464 208 B
IOPIN -464 208 Out
FLAG -32 192 A
IOPIN -32 192 In
FLAG -32 144 Cin
IOPIN -32 144 In
FLAG 288 352 S1
IOPIN 288 352 In
FLAG -32 224 B
IOPIN -32 224 In
FLAG 160 336 S0
IOPIN 160 336 In
FLAG 32 592 0
FLAG -592 320 0
FLAG -704 272 0
FLAG -704 64 Cin
IOPIN -704 64 Out
FLAG -592 144 A
IOPIN -592 144 Out
FLAG 32 320 S1
IOPIN 32 320 Out
FLAG 432 144 Cout
IOPIN 432 144 Out
SYMBOL voltage -64 320 R0
WINDOW 3 -98 170 Left 2
WINDOW 123 0 0 Left 0
WINDOW 39 0 0 Left 0
SYMATTR Value PULSE(0 1.8 5n 1f 1f 5n 10n)
SYMATTR InstName S0
SYMBOL voltage 224 80 R180
WINDOW 0 24 96 Left 2
WINDOW 3 24 16 Left 2
SYMATTR InstName V3
SYMATTR Value 1.8
SYMBOL voltage -464 256 R0
WINDOW 3 13 -58 Left 2
WINDOW 123 0 0 Left 0
WINDOW 39 0 0 Left 0
SYMATTR Value PULSE(0 1.8 10n 1f 1f 10n 20n)
SYMATTR InstName B
SYMBOL voltage -704 80 R0
WINDOW 3 20 -41 Left 2
WINDOW 123 0 0 Left 0
WINDOW 39 0 0 Left 0
SYMATTR Value PULSE(0 1.8 20n 1f 1f 20n 40n)
SYMATTR InstName Cin
SYMBOL voltage -592 160 R0
WINDOW 3 14 -37 Left 2
WINDOW 123 0 0 Left 0
WINDOW 39 0 0 Left 0
SYMATTR Value PULSE(0 1.8 5n 1f 1f 5n 10n)
SYMATTR InstName A
SYMBOL voltage 32 320 R0
WINDOW 123 0 0 Left 0
WINDOW 39 0 0 Left 0
SYMATTR InstName S1
SYMATTR Value PULSE(0 1.8 10n 1f 1f 10n 20n)
SYMBOL 1bit_ALU_sym 208 176 R0
SYMATTR InstName X2
TEXT -152 88 Left 2 !.tran 160n
TEXT -296 -80 Left 2 ;19BEC1211 Tom Michael Shibu
