Version 4
SHEET 1 912 740
WIRE 96 48 -160 48
WIRE 272 48 272 16
WIRE 272 48 208 48
WIRE 624 48 272 48
WIRE 208 80 208 48
WIRE 208 80 -64 80
WIRE 272 80 272 48
WIRE 96 144 96 48
WIRE 144 144 96 144
WIRE 752 144 400 144
WIRE 800 144 752 144
WIRE -160 160 -160 48
WIRE -128 160 -160 160
WIRE 752 160 752 144
WIRE 64 176 32 176
WIRE 144 176 96 176
WIRE 64 192 64 176
WIRE 128 192 64 192
WIRE 144 192 128 192
WIRE 416 192 400 192
WIRE 496 192 416 192
WIRE 128 208 128 192
WIRE 416 208 416 192
WIRE 272 224 80 224
WIRE 96 240 96 176
WIRE 96 240 -16 240
WIRE 752 272 752 224
WIRE 128 288 128 272
WIRE -160 304 -160 160
WIRE -160 304 -240 304
WIRE -16 304 -16 240
WIRE 208 304 -16 304
WIRE 416 304 416 272
WIRE 416 320 368 320
WIRE 464 320 416 320
WIRE 208 336 32 336
WIRE 416 336 416 320
WIRE 624 352 624 48
WIRE -16 368 -16 304
WIRE -16 368 -256 368
WIRE 496 384 496 192
WIRE 544 384 496 384
WIRE 80 400 80 224
WIRE 272 400 80 400
WIRE 464 400 464 320
WIRE 544 400 464 400
WIRE 544 416 464 416
WIRE 784 416 672 416
WIRE 832 416 784 416
WIRE -128 432 -128 192
WIRE -128 432 -256 432
WIRE 32 432 32 336
WIRE 32 432 -128 432
WIRE 416 432 416 400
WIRE 528 432 496 432
WIRE 544 432 528 432
WIRE 784 432 784 416
WIRE 528 448 528 432
WIRE 560 448 528 448
WIRE -16 480 -16 368
WIRE 208 480 -16 480
WIRE 416 496 368 496
WIRE 464 496 464 416
WIRE 464 496 416 496
WIRE 32 512 32 432
WIRE 208 512 32 512
WIRE 416 512 416 496
WIRE 784 528 784 496
WIRE 560 544 560 512
WIRE 624 544 624 480
WIRE 688 544 624 544
WIRE 80 592 80 400
WIRE 272 592 80 592
WIRE 608 592 608 480
WIRE 688 592 688 544
WIRE 416 608 416 576
WIRE -16 672 -16 480
WIRE 208 672 -16 672
WIRE 496 688 496 432
WIRE 496 688 368 688
WIRE 32 704 32 512
WIRE 208 704 32 704
FLAG -256 368 A
IOPIN -256 368 In
FLAG -256 432 B
IOPIN -256 432 In
FLAG -240 304 Cin
IOPIN -240 304 In
FLAG 272 16 Vdd
IOPIN 272 16 In
FLAG 688 592 S1
IOPIN 688 592 In
FLAG 608 592 S0
IOPIN 608 592 In
FLAG 832 416 F
IOPIN 832 416 Out
FLAG 800 144 Cout
IOPIN 800 144 Out
FLAG 128 288 0
FLAG 416 304 0
FLAG 416 432 0
FLAG 416 608 0
FLAG 784 528 0
FLAG 560 544 0
FLAG 752 272 0
SYMBOL FA_Sym 272 176 R0
SYMATTR InstName X1
SYMBOL XOR_Sym 256 688 R0
SYMATTR InstName X2
SYMBOL AND_Sym 256 320 R0
SYMATTR InstName X3
SYMBOL Nor_Sym 256 496 R0
SYMATTR InstName X4
SYMBOL 4_1MUX_Sym 640 416 R0
SYMATTR InstName X5
SYMBOL XOR_Sym -80 176 R0
SYMATTR InstName X6
SYMBOL cap 544 448 R0
SYMATTR InstName C1
SYMATTR Value 0.01f
SYMBOL cap 768 432 R0
SYMATTR InstName C2
SYMATTR Value 0.01f
SYMBOL cap 736 160 R0
SYMATTR InstName C3
SYMATTR Value 0.01f
SYMBOL cap 112 208 R0
SYMATTR InstName C4
SYMATTR Value 0.01f
SYMBOL cap 400 208 R0
SYMATTR InstName C5
SYMATTR Value 0.01f
SYMBOL cap 400 336 R0
SYMATTR InstName C6
SYMATTR Value 0.01f
SYMBOL cap 400 512 R0
SYMATTR InstName C7
SYMATTR Value 0.01f
TEXT 536 -8 Left 2 ;19BEC1211
