Version 4
SHEET 1 880 680
WIRE -336 32 -336 -32
WIRE -336 160 -336 112
WIRE 144 192 64 192
WIRE -128 208 -128 192
WIRE 400 224 272 224
WIRE 144 240 64 240
WIRE -304 336 -304 288
WIRE -128 336 -128 288
WIRE 224 352 224 288
WIRE -304 464 -304 416
FLAG -304 464 0
FLAG -128 336 0
FLAG 400 224 OUT
IOPIN 400 224 Out
FLAG -336 160 0
FLAG -304 288 D0
IOPIN -304 288 Out
FLAG -128 192 S
IOPIN -128 192 Out
FLAG -336 -32 D1
IOPIN -336 -32 Out
FLAG 64 192 D1
IOPIN 64 192 In
FLAG 64 240 D0
IOPIN 64 240 In
FLAG 224 352 S
IOPIN 224 352 In
SYMBOL voltage -304 320 R0
WINDOW 3 -147 98 Left 2
SYMATTR Value PULSE(0 1.8 2.5n 1f 1f 5n 10n)
SYMATTR InstName A
SYMBOL voltage -128 192 R0
WINDOW 3 -119 124 Left 2
WINDOW 123 0 0 Left 0
WINDOW 39 0 0 Left 0
SYMATTR Value PULSE(0 1.8 0 1f 1f 5n 10n)
SYMATTR InstName B
SYMBOL voltage -336 16 R0
WINDOW 3 -175 71 Left 2
WINDOW 123 0 0 Left 0
WINDOW 39 0 0 Left 0
SYMATTR Value PULSE(0 1.8 0 1f 1f 5n 10n)
SYMATTR InstName Cin
SYMBOL 2_1MUX_TG_Sym 240 224 R0
SYMATTR InstName X1
TEXT -152 88 Left 2 !.tran 20n
TEXT -288 -8 Left 2 ;19BEC1211 Tom Michael Shibu
TEXT -112 456 Left 2 ;2:1 MUX Symbol Test
