Version 4
SHEET 1 880 680
WIRE 128 32 -32 32
WIRE 144 32 144 -48
WIRE 144 32 128 32
WIRE 160 32 144 32
WIRE 416 32 160 32
WIRE 128 48 128 32
WIRE -32 80 -32 32
WIRE 32 112 -224 112
WIRE 416 112 416 32
WIRE 32 128 32 112
WIRE 64 128 32 128
WIRE 288 144 224 144
WIRE -128 160 -144 160
WIRE 64 160 48 160
WIRE 288 192 288 144
WIRE 352 192 288 192
WIRE 160 208 160 32
WIRE 160 208 128 208
WIRE 544 208 512 208
WIRE 352 224 288 224
WIRE -144 240 -144 160
WIRE -96 240 -144 240
WIRE 64 288 -208 288
WIRE 288 304 288 224
WIRE 288 304 224 304
WIRE -96 320 -96 240
WIRE 64 320 -96 320
WIRE -96 384 -96 320
FLAG -96 384 S
IOPIN -96 384 In
FLAG -208 288 D1
IOPIN -208 288 In
FLAG -224 112 D0
IOPIN -224 112 In
FLAG 144 -48 Vdd
IOPIN 144 -48 In
FLAG 544 208 Y
IOPIN 544 208 Out
SYMBOL AND_Sym 112 144 R0
SYMATTR InstName X1
SYMBOL AND_Sym 112 304 R0
SYMATTR InstName X2
SYMBOL OR_Sym 400 208 R0
SYMATTR InstName X3
SYMBOL NOT_Sym -48 160 R0
SYMATTR InstName X4
TEXT -280 -48 Left 2 ;19BEC1211
