Version 4
SHEET 1 880 680
WIRE 304 -32 224 -32
WIRE 224 -16 224 -32
WIRE 304 80 304 -32
WIRE 224 160 224 64
WIRE 144 192 64 192
WIRE -288 208 -288 144
WIRE -208 208 -208 160
WIRE -128 208 -128 192
WIRE 400 224 272 224
WIRE 144 240 64 240
WIRE -288 336 -288 288
WIRE -208 336 -208 288
WIRE -128 336 -128 288
WIRE 224 352 224 288
FLAG 304 80 0
FLAG -208 336 0
FLAG -128 336 0
FLAG 400 224 Y
IOPIN 400 224 Out
FLAG -288 336 0
FLAG -208 160 D0
IOPIN -208 160 Out
FLAG -128 192 S
IOPIN -128 192 Out
FLAG -288 144 D1
IOPIN -288 144 Out
FLAG 64 192 D1
IOPIN 64 192 In
FLAG 64 240 D0
IOPIN 64 240 In
FLAG 224 352 S
IOPIN 224 352 In
SYMBOL voltage -208 192 R0
WINDOW 3 -147 98 Left 2
SYMATTR Value PULSE(0 1.8 2.5n 1f 1f 5n 10n)
SYMATTR InstName A
SYMBOL voltage -128 192 R0
WINDOW 3 -119 124 Left 2
WINDOW 123 0 0 Left 0
WINDOW 39 0 0 Left 0
SYMATTR Value PULSE(0 1.8 0 1f 1f 5n 10n)
SYMATTR InstName B
SYMBOL voltage 224 80 R180
WINDOW 0 24 96 Left 2
WINDOW 3 24 16 Left 2
SYMATTR InstName V3
SYMATTR Value 1.8
SYMBOL voltage -288 192 R0
WINDOW 3 -175 71 Left 2
WINDOW 123 0 0 Left 0
WINDOW 39 0 0 Left 0
SYMATTR Value PULSE(0 1.8 0 1f 1f 5n 10n)
SYMATTR InstName Cin
SYMBOL 2_1MUX_Sym 240 224 R0
SYMATTR InstName X1
TEXT -152 88 Left 2 !.tran 20n
TEXT -288 -8 Left 2 ;19BEC1211 Tom Michael Shibu
