Version 4
SHEET 1 880 924
WIRE 208 80 208 64
WIRE 208 80 176 80
WIRE 176 96 176 80
WIRE 160 144 128 144
WIRE 304 144 256 144
WIRE 128 192 128 144
WIRE 208 192 208 144
WIRE 208 192 128 192
WIRE 128 240 128 192
WIRE 128 240 96 240
WIRE 304 240 304 144
WIRE 560 240 304 240
WIRE 304 288 304 240
WIRE 304 288 208 288
WIRE 128 336 128 240
WIRE 160 336 128 336
WIRE 208 336 208 288
WIRE 304 336 304 288
WIRE 304 336 256 336
WIRE 240 400 240 384
WIRE 240 400 208 400
WIRE 208 416 208 400
WIRE 560 416 560 240
WIRE 624 416 560 416
WIRE 672 416 624 416
WIRE -128 448 -240 448
WIRE -128 480 -128 448
WIRE 336 496 336 480
WIRE 336 496 304 496
WIRE 304 512 304 496
WIRE -240 560 -240 448
WIRE 288 560 256 560
WIRE 432 560 384 560
WIRE 256 608 256 560
WIRE 336 608 336 560
WIRE 336 608 256 608
WIRE 256 656 256 608
WIRE 256 656 224 656
WIRE 432 656 432 560
WIRE 560 656 560 416
WIRE 560 656 432 656
WIRE 432 704 432 656
WIRE 432 704 336 704
WIRE 256 752 256 656
WIRE 288 752 256 752
WIRE 336 752 336 704
WIRE 432 752 432 704
WIRE 432 752 384 752
WIRE 368 816 368 800
WIRE 368 816 336 816
WIRE 336 832 336 816
FLAG 96 240 D0
IOPIN 96 240 In
FLAG 224 656 D1
IOPIN 224 656 In
FLAG 208 64 S
IOPIN 208 64 In
FLAG 336 480 ~S
IOPIN 336 480 In
FLAG 336 832 S
IOPIN 336 832 In
FLAG 208 416 ~S
IOPIN 208 416 In
FLAG -304 112 D0
IOPIN -304 112 Out
FLAG -256 240 D1
IOPIN -256 240 Out
FLAG -592 400 S
IOPIN -592 400 Out
FLAG -592 480 0
FLAG -256 320 0
FLAG -304 192 0
FLAG -336 640 S
IOPIN -336 640 In
FLAG -160 640 ~S
IOPIN -160 640 Out
FLAG -128 560 0
FLAG 672 416 Out
IOPIN 672 416 Out
FLAG 624 480 0
SYMBOL nmos4 256 96 R90
SYMATTR InstName M1
SYMBOL pmos4 160 384 R270
SYMATTR InstName M2
SYMBOL voltage -304 96 R0
WINDOW 3 19 84 Left 2
SYMATTR InstName D0
SYMATTR Value PULSE(0 1.8 0 1f 1f 5n 10n)
SYMBOL voltage -256 224 R0
SYMATTR InstName D1
SYMATTR Value PULSE(0 1.8 2.5n 1f 1f 5n 10n)
SYMBOL voltage -592 384 R0
SYMATTR InstName S
SYMATTR Value PULSE(0 1.8 0 1f 1f 5n 10n)
SYMBOL nmos4 384 512 R90
SYMATTR InstName M3
SYMBOL pmos4 288 800 R270
SYMATTR InstName M4
SYMBOL NOT_Sym -256 640 R0
SYMATTR InstName X1
SYMBOL voltage -128 464 R0
SYMATTR InstName VDD
SYMATTR Value 1.8
SYMBOL cap 608 416 R0
SYMATTR InstName C1
SYMATTR Value 0.1f
TEXT -488 720 Left 2 !.tran 10n
TEXT -664 80 Left 2 ;19BEC1211\nTom Michael Shibu
