Version 4
SHEET 1 1028 1040
WIRE 304 -80 144 -80
WIRE 304 -64 304 -80
WIRE 144 16 144 -80
WIRE 144 16 32 16
WIRE 224 16 144 16
WIRE 32 32 32 16
WIRE -32 112 -256 112
WIRE 560 128 128 128
WIRE -32 144 -192 144
WIRE 144 208 32 208
WIRE 224 208 224 16
WIRE 224 208 144 208
WIRE 368 208 224 208
WIRE 32 224 32 208
WIRE 368 224 368 208
WIRE -256 288 -256 112
WIRE -256 288 -416 288
WIRE 224 288 176 288
WIRE 496 288 464 288
WIRE -32 304 -96 304
WIRE 176 320 176 288
WIRE 176 320 128 320
WIRE 224 320 208 320
WIRE 608 320 464 320
WIRE -192 336 -192 144
WIRE -192 336 -416 336
WIRE -32 336 -192 336
WIRE -96 400 -96 304
WIRE -96 400 -416 400
WIRE 496 416 496 288
WIRE 608 416 496 416
WIRE 144 432 144 208
WIRE 144 432 32 432
WIRE -288 448 -416 448
WIRE -256 512 -256 288
WIRE -32 512 -256 512
WIRE 208 528 208 320
WIRE 208 528 128 528
WIRE -288 544 -288 448
WIRE -32 544 -288 544
WIRE 144 624 144 432
WIRE 640 624 144 624
WIRE 144 640 144 624
WIRE 144 640 32 640
WIRE 496 640 496 416
WIRE 496 640 416 640
WIRE 416 688 416 640
WIRE 496 688 416 688
WIRE 832 688 736 688
WIRE -96 720 -96 400
WIRE -32 720 -96 720
WIRE 496 720 368 720
WIRE 832 720 736 720
WIRE 368 736 368 720
WIRE 368 736 128 736
WIRE -288 752 -288 544
WIRE -32 752 -288 752
FLAG 560 128 P0
IOPIN 560 128 Out
FLAG 608 320 P1
IOPIN 608 320 Out
FLAG 608 416 C1
IOPIN 608 416 Out
FLAG 832 720 P2
IOPIN 832 720 Out
FLAG -416 288 A0
IOPIN -416 288 In
FLAG -416 336 B0
IOPIN -416 336 In
FLAG -416 400 A1
IOPIN -416 400 In
FLAG -416 448 B1
IOPIN -416 448 In
FLAG 832 688 C2
IOPIN 832 688 Out
FLAG -672 624 0
FLAG -608 752 0
FLAG -544 880 0
FLAG -464 1008 0
FLAG -672 544 A0
IOPIN -672 544 Out
FLAG -608 672 B0
IOPIN -608 672 Out
FLAG -544 800 A1
IOPIN -544 800 Out
FLAG -464 928 B1
IOPIN -464 928 Out
FLAG 304 16 0
SYMBOL AND_Sym 16 128 R0
SYMATTR InstName X1
SYMBOL AND_Sym 16 320 R0
SYMATTR InstName X2
SYMBOL AND_Sym 16 528 R0
SYMATTR InstName X3
SYMBOL AND_Sym 16 736 R0
SYMATTR InstName X4
SYMBOL HA_Sym 368 304 R0
SYMATTR InstName X5
SYMBOL HA_Sym 640 704 R0
SYMATTR InstName X6
SYMBOL voltage -672 528 R0
SYMATTR InstName V1
SYMATTR Value 1.8
SYMBOL voltage -608 656 R0
SYMATTR InstName V2
SYMATTR Value 1.8
SYMBOL voltage -544 784 R0
SYMATTR InstName V3
SYMATTR Value 1.8
SYMBOL voltage -464 912 R0
SYMATTR InstName V4
SYMATTR Value 0
SYMBOL voltage 304 -80 R0
SYMATTR InstName V5
SYMATTR Value 1.8
TEXT 48 864 Left 2 !.tran 40n
TEXT -832 -32 Left 2 ;19BEC1211 Tom Michael Shibu
TEXT -920 128 Left 2 ;A1 A0 => 1 1\nB1 B0 => 0 1                         C2 P2 P1 P0\n-------------------------------------------------\nA1A0 x B1B0 => 1 1 X 0 1  =  0   0   1   1
