Version 4
SHEET 1 880 680
WIRE 144 32 144 -48
WIRE 256 32 144 32
WIRE 448 32 256 32
WIRE 144 64 144 32
WIRE 64 96 -224 96
WIRE 320 128 192 128
WIRE 64 144 -224 144
WIRE 448 144 448 32
WIRE 320 176 320 128
WIRE 368 176 320 176
WIRE 32 208 -96 208
WIRE 144 208 144 192
WIRE 144 208 32 208
WIRE 544 208 496 208
WIRE 256 224 256 32
WIRE 256 224 160 224
WIRE 368 224 320 224
WIRE 160 256 160 224
WIRE 80 288 -240 288
WIRE 320 320 320 224
WIRE 320 320 208 320
WIRE 80 336 -240 336
WIRE -96 384 -96 208
WIRE 448 400 448 272
WIRE 32 416 32 208
WIRE 160 416 160 384
WIRE 160 416 32 416
FLAG -96 384 S0
IOPIN -96 384 In
FLAG -224 144 D1
IOPIN -224 144 In
FLAG -224 96 D0
IOPIN -224 96 In
FLAG 144 -48 Vdd
IOPIN 144 -48 In
FLAG 544 208 Y
IOPIN 544 208 Out
FLAG -240 288 D2
IOPIN -240 288 In
FLAG -240 336 D3
IOPIN -240 336 In
FLAG 448 400 S1
IOPIN 448 400 In
SYMBOL 2_1MUX_Sym 176 320 R0
SYMATTR InstName X2
SYMBOL 2_1MUX_Sym 464 208 R0
SYMATTR InstName X3
SYMBOL 2_1MUX_Sym 160 128 R0
SYMATTR InstName X1
TEXT -280 -48 Left 2 ;19BEC1211
