Version 4
SHEET 1 880 704
WIRE -160 -192 -160 -240
WIRE 304 -80 304 -128
WIRE -384 16 -384 -32
WIRE 112 96 64 96
WIRE 304 128 240 128
WIRE 112 144 64 144
WIRE 304 176 304 128
WIRE 368 176 304 176
WIRE 192 208 192 192
WIRE 272 208 192 208
WIRE 528 208 496 208
WIRE 576 208 528 208
WIRE 368 224 304 224
WIRE -384 240 -384 176
WIRE 128 256 64 256
WIRE 304 288 304 224
WIRE 304 288 256 288
WIRE 128 304 64 304
WIRE 208 384 208 352
WIRE 272 384 272 208
WIRE 272 384 208 384
WIRE 208 400 208 384
WIRE 448 400 448 272
WIRE -320 416 -320 368
WIRE 144 528 144 480
FLAG 64 96 D0
IOPIN 64 96 In
FLAG 64 144 D1
IOPIN 64 144 In
FLAG 64 256 D2
IOPIN 64 256 In
FLAG 64 304 D3
IOPIN 64 304 In
FLAG 208 400 S0
IOPIN 208 400 In
FLAG 448 400 S1
IOPIN 448 400 In
FLAG 576 208 Out
IOPIN 576 208 Out
FLAG -384 96 0
FLAG -384 320 0
FLAG -320 496 0
FLAG 144 608 0
FLAG -160 -112 0
FLAG 304 0 0
FLAG -384 -32 D0
IOPIN -384 -32 Out
FLAG -384 176 D1
IOPIN -384 176 Out
FLAG -320 368 D2
IOPIN -320 368 Out
FLAG 144 480 D3
IOPIN 144 480 Out
FLAG -160 -240 S0
IOPIN -160 -240 Out
FLAG 304 -128 S1
IOPIN 304 -128 Out
FLAG 528 272 0
SYMBOL 2_1MUX_TG_Sym 208 128 R0
SYMATTR InstName X1
SYMBOL 2_1MUX_TG_Sym 224 288 R0
SYMATTR InstName X2
SYMBOL 2_1MUX_TG_Sym 464 208 R0
SYMATTR InstName X3
SYMBOL voltage -384 0 R0
WINDOW 123 0 0 Left 0
WINDOW 39 0 0 Left 0
SYMATTR InstName D0
SYMATTR Value PULSE(0 1.8 5n 1f 1f 5n 10n)
SYMBOL voltage -384 224 R0
SYMATTR InstName D1
SYMATTR Value PULSE(0 1.8 15n 1f 1f 5n 20n)
SYMBOL voltage -320 400 R0
SYMATTR InstName D2
SYMATTR Value PULSE(0 1.8 25n 1f 1f 5n 30n)
SYMBOL voltage 144 512 R0
SYMATTR InstName D3
SYMATTR Value PULSE(0 1.8 35n 1f 1f 5n 40n)
SYMBOL voltage -160 -208 R0
SYMATTR InstName S0
SYMATTR Value PULSE(0 1.8 10n 1f 1f 10n 20n)
SYMBOL voltage 304 -96 R0
SYMATTR InstName S1
SYMATTR Value PULSE(0 1.8 20n 1f 1f 20n 40n)
SYMBOL cap 512 208 R0
SYMATTR InstName C1
SYMATTR Value 0.01f
TEXT 40 -280 Left 2 ;19BEC1211\nTom Michael Shibu
TEXT -456 632 Left 2 !.tran 80n
TEXT -120 656 Left 2 ;4:1 MUX using 2:1 MUX combination
