Version 4
SHEET 1 880 680
WIRE 304 -32 224 -32
WIRE 224 -16 224 -32
WIRE 304 80 304 -32
WIRE -704 96 -704 64
WIRE 80 128 -32 128
WIRE 48 160 -32 160
WIRE 224 160 224 64
WIRE -592 176 -592 144
WIRE 32 192 -48 192
WIRE 80 192 80 128
WIRE 144 192 80 192
WIRE 48 208 48 160
WIRE 144 208 48 208
WIRE 16 224 -48 224
WIRE 32 224 32 192
WIRE 144 224 32 224
WIRE 400 224 272 224
WIRE 16 240 16 224
WIRE 144 240 16 240
WIRE -704 272 -704 176
WIRE -464 272 -464 208
WIRE -592 320 -592 256
WIRE 208 320 208 288
WIRE 208 320 192 320
WIRE -272 336 -272 288
WIRE -64 336 -64 320
WIRE 32 336 32 320
WIRE 224 352 224 288
WIRE 192 368 192 320
WIRE -464 400 -464 352
WIRE -272 464 -272 416
WIRE -64 464 -64 416
WIRE 32 592 32 416
FLAG 304 80 0
FLAG -272 464 0
FLAG -64 464 0
FLAG 400 224 Y
IOPIN 400 224 Out
FLAG -464 400 0
FLAG -272 288 D3
IOPIN -272 288 Out
FLAG -64 320 S0
IOPIN -64 320 Out
FLAG -464 208 D2
IOPIN -464 208 Out
FLAG -32 160 D1
IOPIN -32 160 In
FLAG -32 128 D0
IOPIN -32 128 In
FLAG 224 352 S1
IOPIN 224 352 In
FLAG -48 192 D2
IOPIN -48 192 In
FLAG -48 224 D3
IOPIN -48 224 In
FLAG 192 368 S0
IOPIN 192 368 In
FLAG 32 592 0
FLAG -592 320 0
FLAG -704 272 0
FLAG -704 64 D0
IOPIN -704 64 Out
FLAG -592 144 D1
IOPIN -592 144 Out
FLAG 32 320 S1
IOPIN 32 320 Out
SYMBOL voltage -272 320 R0
WINDOW 3 -168 115 Left 2
SYMATTR Value PULSE(0 1.8 35n 1f 1f 5n 40n)
SYMATTR InstName D3
SYMBOL voltage -64 320 R0
WINDOW 3 -98 170 Left 2
WINDOW 123 0 0 Left 0
WINDOW 39 0 0 Left 0
SYMATTR Value PULSE(0 1.8 10n 1f 1f 10n 20n)
SYMATTR InstName S0
SYMBOL voltage 224 80 R180
WINDOW 0 24 96 Left 2
WINDOW 3 24 16 Left 2
SYMATTR InstName V3
SYMATTR Value 1.8
SYMBOL voltage -464 256 R0
WINDOW 3 -173 119 Left 2
WINDOW 123 0 0 Left 0
WINDOW 39 0 0 Left 0
SYMATTR Value PULSE(0 1.8 25n 1f 1f 5n 30n)
SYMATTR InstName D2
SYMBOL 4_1MUX_Sym 240 224 R0
SYMATTR InstName X1
SYMBOL voltage -704 80 R0
WINDOW 3 -215 103 Left 2
WINDOW 123 0 0 Left 0
WINDOW 39 0 0 Left 0
SYMATTR Value PULSE(0 1.8 5n 1f 1f 5n 10n)
SYMATTR InstName D0
SYMBOL voltage -592 160 R0
WINDOW 3 28 92 Left 2
WINDOW 123 0 0 Left 0
WINDOW 39 0 0 Left 0
SYMATTR Value PULSE(0 1.8 15n 1f 1f 5n 20n)
SYMATTR InstName D1
SYMBOL voltage 32 320 R0
WINDOW 123 0 0 Left 0
WINDOW 39 0 0 Left 0
SYMATTR InstName S1
SYMATTR Value PULSE(0 1.8 20n 1f 1f 20n 40n)
TEXT -152 88 Left 2 !.tran 80n
TEXT -288 -8 Left 2 ;19BEC1211 Tom Michael Shibu
