Version 4
SHEET 1 1616 904
WIRE 400 48 32 48
WIRE 576 48 576 -16
WIRE 576 48 400 48
WIRE 752 48 576 48
WIRE 1152 48 752 48
WIRE 32 96 32 48
WIRE 400 96 400 48
WIRE 752 96 752 48
WIRE 1152 96 1152 48
WIRE -560 128 -688 128
WIRE -688 144 -688 128
WIRE -96 160 -208 160
WIRE 192 160 160 160
WIRE 272 160 192 160
WIRE 560 160 528 160
WIRE 624 160 560 160
WIRE 912 160 880 160
WIRE 1024 160 912 160
WIRE 1328 160 1280 160
WIRE 1392 160 1328 160
WIRE -96 192 -176 192
WIRE 272 192 208 192
WIRE 624 192 576 192
WIRE 1024 192 944 192
WIRE -96 208 -128 208
WIRE 176 208 160 208
WIRE 272 208 240 208
WIRE 544 208 528 208
WIRE 624 208 608 208
WIRE 896 208 880 208
WIRE 1024 208 1008 208
WIRE 1296 208 1280 208
WIRE 1232 240 1200 240
WIRE 1296 240 1296 208
WIRE -688 256 -688 224
WIRE 480 256 448 256
WIRE 544 256 544 208
WIRE 832 256 800 256
WIRE 896 256 896 208
WIRE 112 272 80 272
WIRE 176 272 176 208
WIRE 528 288 528 272
WIRE 880 288 880 272
WIRE 1280 288 1280 272
WIRE -176 336 -176 192
WIRE -128 336 -128 208
WIRE 176 336 176 272
WIRE 208 336 208 192
WIRE 240 336 240 208
WIRE 544 336 544 256
WIRE 576 336 576 192
WIRE 608 336 608 208
WIRE 896 336 896 256
WIRE 944 336 944 192
WIRE 1008 336 1008 208
WIRE 1296 336 1296 240
WIRE -560 352 -672 352
WIRE -672 368 -672 352
WIRE -672 480 -672 448
WIRE -416 480 -560 480
WIRE 1536 480 1536 432
WIRE -560 496 -560 480
WIRE 528 560 176 560
WIRE 720 560 720 528
WIRE 720 560 528 560
WIRE 880 560 720 560
WIRE 1200 560 880 560
WIRE 176 576 176 560
WIRE 528 576 528 560
WIRE 880 576 880 560
WIRE 1200 576 1200 560
WIRE 1200 592 1200 576
WIRE 1536 592 1536 560
WIRE -560 608 -560 576
WIRE -288 608 -464 608
WIRE -464 624 -464 608
WIRE 112 656 80 656
WIRE 464 656 432 656
WIRE 816 656 784 656
WIRE 1136 656 1104 656
WIRE 288 672 272 672
WIRE 304 672 288 672
WIRE 640 672 624 672
WIRE 656 672 640 672
WIRE 992 672 976 672
WIRE 1008 672 992 672
WIRE 1312 672 1296 672
WIRE 1328 672 1312 672
WIRE 112 688 16 688
WIRE 464 688 416 688
WIRE 816 688 768 688
WIRE 1136 688 1104 688
WIRE 16 720 16 688
WIRE 416 720 416 688
WIRE 768 720 768 688
WIRE 1104 720 1104 688
WIRE -464 736 -464 704
WIRE -208 736 -368 736
WIRE -368 752 -368 736
WIRE 16 832 16 800
WIRE 416 832 416 800
WIRE 768 832 768 800
WIRE 1104 832 1104 800
WIRE -368 864 -368 832
FLAG -208 160 Cin
IOPIN -208 160 In
FLAG -176 336 A0
IOPIN -176 336 In
FLAG 208 336 A1
IOPIN 208 336 In
FLAG 576 336 A2
IOPIN 576 336 In
FLAG 944 336 A3
IOPIN 944 336 In
FLAG -128 336 B0
IOPIN -128 336 In
FLAG 240 336 B1
IOPIN 240 336 In
FLAG 608 336 B2
IOPIN 608 336 In
FLAG 1008 336 B3
IOPIN 1008 336 In
FLAG 1392 160 Cout
IOPIN 1392 160 Out
FLAG 1296 336 S3
IOPIN 1296 336 Out
FLAG 896 336 S2
IOPIN 896 336 Out
FLAG 544 336 S1
IOPIN 544 336 Out
FLAG 176 336 S0
IOPIN 176 336 Out
FLAG 16 832 0
FLAG 416 832 0
FLAG 768 832 0
FLAG 1104 832 0
FLAG 80 272 0
FLAG 448 256 0
FLAG 800 256 0
FLAG 1200 240 0
FLAG 80 656 Cin
IOPIN 80 656 In
FLAG 432 656 Cin
IOPIN 432 656 In
FLAG 784 656 Cin
IOPIN 784 656 In
FLAG 1104 656 Cin
IOPIN 1104 656 In
FLAG 720 528 Vdd
IOPIN 720 528 In
FLAG 576 -16 Vdd
IOPIN 576 -16 In
FLAG 304 672 B0
IOPIN 304 672 Out
FLAG 656 672 B1
IOPIN 656 672 Out
FLAG 1008 672 B2
IOPIN 1008 672 Out
FLAG 1328 672 B3
IOPIN 1328 672 Out
FLAG -688 256 0
FLAG -672 480 0
FLAG -560 608 0
FLAG -464 736 0
FLAG -368 864 0
FLAG -560 352 A0
IOPIN -560 352 Out
FLAG -416 480 A1
IOPIN -416 480 Out
FLAG -288 608 A2
IOPIN -288 608 Out
FLAG -208 736 A3
IOPIN -208 736 Out
FLAG -560 128 Cin
IOPIN -560 128 Out
FLAG 1536 592 0
FLAG 1536 432 Vdd
IOPIN 1536 432 Out
FLAG 192 224 0
FLAG 560 224 0
FLAG 912 224 0
FLAG 1328 224 0
FLAG 288 736 0
FLAG 640 736 0
FLAG 992 736 0
FLAG 1312 736 0
SYMBOL FA_Sym 32 192 R0
SYMATTR InstName X1
SYMBOL FA_Sym 400 192 R0
SYMATTR InstName X2
SYMBOL FA_Sym 752 192 R0
SYMATTR InstName X3
SYMBOL FA_Sym 1152 192 R0
SYMATTR InstName X4
SYMBOL XOR_Sym 160 672 R0
SYMATTR InstName X5
SYMBOL XOR_Sym 512 672 R0
SYMATTR InstName X6
SYMBOL XOR_Sym 864 672 R0
SYMATTR InstName X7
SYMBOL XOR_Sym 1184 672 R0
SYMATTR InstName X8
SYMBOL voltage 16 704 R0
SYMATTR InstName V1
SYMATTR Value PULSE(0 1.8 1n 1f 1f 1n 2n)
SYMBOL voltage 416 704 R0
SYMATTR InstName V2
SYMATTR Value PULSE(0 1.8 2n 1f 1f 2n 4n)
SYMBOL voltage 768 704 R0
SYMATTR InstName V3
SYMATTR Value PULSE(0 1.8 4n 1f 1f 4n 8n)
SYMBOL voltage 1104 704 R0
SYMATTR InstName V4
SYMATTR Value PULSE(0 1.8 8n 1f 1f 8n 16n)
SYMBOL cap 544 240 R90
WINDOW 0 0 32 VBottom 2
WINDOW 3 32 32 VTop 2
SYMATTR InstName C1
SYMATTR Value 0.01f
SYMBOL cap 896 240 R90
WINDOW 0 0 32 VBottom 2
WINDOW 3 32 32 VTop 2
SYMATTR InstName C3
SYMATTR Value 0.01f
SYMBOL cap 1296 224 R90
WINDOW 0 0 32 VBottom 2
WINDOW 3 32 32 VTop 2
SYMATTR InstName C4
SYMATTR Value 0.01f
SYMBOL voltage -672 352 R0
SYMATTR InstName V5
SYMATTR Value PULSE(0 1.8 1n 1f 1f 1n 2n)
SYMBOL voltage -560 480 R0
SYMATTR InstName V6
SYMATTR Value PULSE(0 1.8 2n 1f 1f 2n 4n)
SYMBOL voltage -464 608 R0
SYMATTR InstName V7
SYMATTR Value PULSE(0 1.8 4n 1f 1f 4n 8n)
SYMBOL voltage -368 736 R0
WINDOW 123 0 0 Left 0
WINDOW 39 0 0 Left 0
SYMATTR InstName V8
SYMATTR Value PULSE(0 1.8 8n 1f 1f 8n 16n)
SYMBOL voltage -688 128 R0
SYMATTR InstName Cin
SYMATTR Value PULSE(0 1.8 16n 1f 1f 16n 32n)
SYMBOL voltage 1536 464 R0
SYMATTR InstName Vdd
SYMATTR Value 1.8
SYMBOL cap 176 256 R90
WINDOW 0 0 32 VBottom 2
WINDOW 3 32 32 VTop 2
SYMATTR InstName C2
SYMATTR Value 0.01f
SYMBOL cap 176 160 R0
SYMATTR InstName C5
SYMATTR Value 0.01f
SYMBOL cap 544 160 R0
SYMATTR InstName C6
SYMATTR Value 0.01f
SYMBOL cap 896 160 R0
SYMATTR InstName C7
SYMATTR Value 0.01f
SYMBOL cap 1312 160 R0
SYMATTR InstName C8
SYMATTR Value 0.01f
SYMBOL cap 272 672 R0
SYMATTR InstName C9
SYMATTR Value 0.01f
SYMBOL cap 624 672 R0
SYMATTR InstName C10
SYMATTR Value 0.01f
SYMBOL cap 976 672 R0
SYMATTR InstName C11
SYMATTR Value 0.01f
SYMBOL cap 1296 672 R0
SYMATTR InstName C12
SYMATTR Value 0.01f
TEXT -272 24 Left 2 ;19BEC1211
TEXT -722 888 Left 2 !.tran 17n
