Version 4
SHEET 1 1680 1084
WIRE 880 -208 800 -208
WIRE 800 -192 800 -208
WIRE 880 -96 880 -208
WIRE 656 0 224 0
WIRE 800 0 800 -112
WIRE 800 0 656 0
WIRE 1008 0 800 0
WIRE 1344 0 1008 0
WIRE -496 16 -496 -16
WIRE 656 64 656 0
WIRE 1008 64 1008 0
WIRE 1344 64 1344 0
WIRE 224 80 224 0
WIRE -368 96 -368 64
WIRE 528 128 432 128
WIRE 832 128 784 128
WIRE 880 128 832 128
WIRE 1216 128 1136 128
WIRE 1552 128 1472 128
WIRE 1568 128 1552 128
WIRE 96 144 -32 144
WIRE 416 144 352 144
WIRE 432 144 432 128
WIRE 432 144 416 144
WIRE 832 144 832 128
WIRE 1136 144 1136 128
WIRE 1552 144 1552 128
WIRE 416 176 416 144
WIRE 528 176 480 176
WIRE 880 176 848 176
WIRE 1216 176 1184 176
WIRE -496 192 -496 96
WIRE -240 192 -240 128
WIRE 96 192 -32 192
WIRE 816 192 784 192
WIRE 1168 192 1136 192
WIRE 1504 192 1472 192
WIRE 1536 192 1504 192
WIRE 384 208 352 208
WIRE 528 208 512 208
WIRE 880 208 864 208
WIRE 1216 208 1200 208
WIRE 1504 208 1504 192
WIRE 96 224 -32 224
WIRE 816 224 816 192
WIRE 816 224 768 224
WIRE -368 240 -368 176
WIRE 384 240 384 208
WIRE 384 240 336 240
WIRE 832 240 832 208
WIRE 1552 240 1552 208
WIRE 1136 256 1136 208
WIRE 336 272 336 240
WIRE 416 272 416 240
WIRE 768 272 768 224
WIRE 1152 272 1120 272
WIRE 1168 272 1168 192
WIRE 1168 272 1152 272
WIRE 512 288 512 208
WIRE 560 288 512 288
WIRE 864 288 864 208
WIRE 912 288 864 288
WIRE 1152 288 1152 272
WIRE 1200 288 1200 208
WIRE 1248 288 1200 288
WIRE 1504 288 1504 272
WIRE -240 320 -240 272
WIRE 480 336 480 176
WIRE 560 336 560 288
WIRE 816 336 816 224
WIRE 848 336 848 176
WIRE 912 336 912 288
WIRE 1184 336 1184 176
WIRE 1248 336 1248 288
WIRE 1536 336 1536 192
WIRE 384 352 384 240
WIRE 1120 352 1120 272
WIRE 336 368 336 336
WIRE 768 384 768 336
WIRE 1152 384 1152 352
WIRE 256 464 256 288
WIRE 688 464 688 272
WIRE 688 464 256 464
WIRE 880 464 688 464
WIRE 1040 464 1040 272
WIRE 1040 464 880 464
WIRE 1376 464 1376 272
WIRE 1376 464 1040 464
WIRE 208 496 208 288
WIRE 640 496 640 272
WIRE 640 496 208 496
WIRE 800 496 640 496
WIRE 992 496 992 272
WIRE 992 496 800 496
WIRE 1328 496 1328 272
WIRE 1328 496 992 496
WIRE 800 544 800 496
WIRE 880 544 880 464
WIRE -112 560 -112 544
WIRE -16 560 -16 544
WIRE 464 624 464 592
WIRE 1136 624 1136 592
WIRE 1264 624 1264 560
WIRE 576 656 576 592
WIRE 832 672 832 640
WIRE 960 672 960 608
WIRE -112 688 -112 640
WIRE 1264 752 1264 704
WIRE 464 768 464 704
WIRE 1136 768 1136 704
WIRE 576 784 576 736
WIRE 960 800 960 752
WIRE -16 816 -16 640
WIRE 832 816 832 752
FLAG 880 -96 0
FLAG -112 688 0
FLAG 384 352 Y0
IOPIN 384 352 Out
FLAG -240 320 0
FLAG -112 544 S0
IOPIN -112 544 Out
FLAG -240 128 B0
IOPIN -240 128 Out
FLAG -32 192 A0
IOPIN -32 192 In
FLAG -32 144 Cin
IOPIN -32 144 In
FLAG 880 544 S1
IOPIN 880 544 In
FLAG -32 224 B0
IOPIN -32 224 In
FLAG 800 544 S0
IOPIN 800 544 In
FLAG -16 816 0
FLAG -368 240 0
FLAG -496 192 0
FLAG -496 -16 Cin
IOPIN -496 -16 Out
FLAG -368 64 A0
IOPIN -368 64 Out
FLAG -16 544 S1
IOPIN -16 544 Out
FLAG 816 336 Y1
IOPIN 816 336 Out
FLAG 1120 352 Y2
IOPIN 1120 352 Out
FLAG 1536 336 Y3
IOPIN 1536 336 Out
FLAG 480 336 A1
IOPIN 480 336 In
FLAG 848 336 A2
IOPIN 848 336 In
FLAG 1184 336 A3
IOPIN 1184 336 In
FLAG 560 336 B1
IOPIN 560 336 In
FLAG 912 336 B2
IOPIN 912 336 In
FLAG 1248 336 B3
IOPIN 1248 336 In
FLAG 1568 128 Cout
IOPIN 1568 128 Out
FLAG 576 784 0
FLAG 576 592 B1
IOPIN 576 592 Out
FLAG 464 768 0
FLAG 464 592 A1
IOPIN 464 592 Out
FLAG 960 800 0
FLAG 960 608 B2
IOPIN 960 608 Out
FLAG 832 816 0
FLAG 832 640 A2
IOPIN 832 640 Out
FLAG 1264 752 0
FLAG 1264 560 B3
IOPIN 1264 560 Out
FLAG 1136 768 0
FLAG 1136 592 A3
IOPIN 1136 592 Out
FLAG 336 368 0
FLAG 768 384 0
FLAG 1152 384 0
FLAG 832 240 0
FLAG 1136 256 0
FLAG 1504 288 0
FLAG 1552 240 0
FLAG 416 272 0
SYMBOL voltage -112 544 R0
WINDOW 3 -98 170 Left 2
WINDOW 123 0 0 Left 0
WINDOW 39 0 0 Left 0
SYMATTR Value PULSE(0 1.8 4n 1f 1f 4n 8n)
SYMATTR InstName S0
SYMBOL voltage 800 -96 R180
WINDOW 0 24 96 Left 2
WINDOW 3 24 16 Left 2
SYMATTR InstName VDD
SYMATTR Value 1.8
SYMBOL voltage -240 176 R0
WINDOW 3 59 327 VLeft 2
WINDOW 123 0 0 Left 0
WINDOW 39 0 0 Left 0
SYMATTR Value PULSE(0 1.8 1n 1f 1f 1n 2n)
SYMATTR InstName B
SYMBOL voltage -496 0 R0
WINDOW 3 58 379 VLeft 2
WINDOW 123 0 0 Left 0
WINDOW 39 0 0 Left 0
SYMATTR Value PULSE(0 1.8 2n 1f 1f 2n 3n)
SYMATTR InstName Cin
SYMBOL voltage -368 80 R0
WINDOW 3 53 358 VLeft 2
WINDOW 123 0 0 Left 0
WINDOW 39 0 0 Left 0
SYMATTR Value PULSE(0 1.8 0.5n 1f 1f 0.5n 1n)
SYMATTR InstName A
SYMBOL voltage -16 544 R0
WINDOW 123 0 0 Left 0
WINDOW 39 0 0 Left 0
SYMATTR InstName S1
SYMATTR Value PULSE(0 1.8 8n 1f 1f 8n 16n)
SYMBOL voltage 576 640 R0
WINDOW 3 59 327 VLeft 2
WINDOW 123 0 0 Left 0
WINDOW 39 0 0 Left 0
SYMATTR Value PULSE(0 1.8 2n 1f 1f 2n 4n)
SYMATTR InstName B1
SYMBOL voltage 464 608 R0
WINDOW 3 53 358 VLeft 2
WINDOW 123 0 0 Left 0
WINDOW 39 0 0 Left 0
SYMATTR Value PULSE(0 1.8 1n 1f 1f 1n 2n)
SYMATTR InstName A1
SYMBOL voltage 960 656 R0
WINDOW 3 59 327 VLeft 2
WINDOW 123 0 0 Left 0
WINDOW 39 0 0 Left 0
SYMATTR Value PULSE(0 1.8 3n 1f 1f 3n 6n)
SYMATTR InstName B2
SYMBOL voltage 832 656 R0
WINDOW 3 53 358 VLeft 2
WINDOW 123 0 0 Left 0
WINDOW 39 0 0 Left 0
SYMATTR Value PULSE(0 1.8 2n 1f 1f 2n 4n)
SYMATTR InstName A2
SYMBOL voltage 1264 608 R0
WINDOW 3 59 327 VLeft 2
WINDOW 123 0 0 Left 0
WINDOW 39 0 0 Left 0
SYMATTR Value PULSE(0 1.8 4n 1f 1f 4n 8n)
SYMATTR InstName B3
SYMBOL voltage 1136 608 R0
WINDOW 3 53 358 VLeft 2
WINDOW 123 0 0 Left 0
WINDOW 39 0 0 Left 0
SYMATTR Value PULSE(0 1.8 3n 1f 1f 3n 6n)
SYMATTR InstName A3
SYMBOL cap 320 272 R0
SYMATTR InstName C1
SYMATTR Value 0.01f
SYMBOL cap 752 272 R0
SYMATTR InstName C2
SYMATTR Value 0.01f
SYMBOL cap 400 176 R0
SYMATTR InstName C3
SYMATTR Value 0.01f
SYMBOL cap 816 144 R0
SYMATTR InstName C4
SYMATTR Value 0.01f
SYMBOL cap 1120 144 R0
SYMATTR InstName C5
SYMATTR Value 0.01f
SYMBOL cap 1136 288 R0
SYMATTR InstName C6
SYMATTR Value 0.01f
SYMBOL cap 1488 208 R0
SYMATTR InstName C7
SYMATTR Value 0.01f
SYMBOL cap 1536 144 R0
SYMATTR InstName C8
SYMATTR Value 0.01f
SYMBOL 1bit_ALU_sym 208 176 R0
SYMATTR InstName X1
SYMBOL 1bit_ALU_sym 640 160 R0
SYMATTR InstName X2
SYMBOL 1bit_ALU_sym 992 160 R0
SYMATTR InstName X3
SYMBOL 1bit_ALU_sym 1328 160 R0
SYMATTR InstName X4
TEXT -32 -160 Left 2 !.tran 0 40n 0
TEXT 320 -64 Left 2 ;19BEC1211 Tom Michael Shibu
