Version 4
SHEET 1 880 680
WIRE 224 64 224 16
WIRE 224 64 96 64
WIRE 320 64 224 64
WIRE 96 80 96 64
WIRE 320 96 320 64
WIRE 32 160 0 160
WIRE 224 176 192 176
WIRE 448 176 400 176
WIRE 32 192 0 192
FLAG 0 160 Vin
IOPIN 0 160 In
FLAG 0 192 Vin2
IOPIN 0 192 In
FLAG 224 16 VDD
IOPIN 224 16 In
FLAG 448 176 Vout
IOPIN 448 176 Out
SYMBOL NOT_Sym 304 176 R0
SYMATTR InstName X2
SYMBOL Nand_Sym 80 176 R0
SYMATTR InstName X1
TEXT -232 -72 Left 2 ;19BEC1211 Tom Michael Shibu
