Version 4
SHEET 1 880 680
WIRE 272 -16 192 -16
WIRE 192 16 192 -16
WIRE 272 32 272 -16
WIRE 192 144 192 96
WIRE 96 208 -48 208
WIRE 384 208 304 208
WIRE -48 240 -48 208
WIRE -48 352 -48 320
FLAG 272 32 0
FLAG -48 352 0
FLAG 384 208 Y
IOPIN 384 208 Out
SYMBOL Buffer_Sym 192 208 R0
SYMATTR InstName X1
SYMBOL voltage -48 224 R0
SYMATTR InstName V1
SYMATTR Value PULSE(0 1.8 0 0 0 5n 10n)
SYMBOL voltage 192 112 R180
WINDOW 0 24 96 Left 2
WINDOW 3 24 16 Left 2
SYMATTR InstName V2
SYMATTR Value 1.8
TEXT -82 376 Left 2 !;tran 50n
TEXT -64 0 Left 2 ;19BEC1211
TEXT 80 376 Left 2 !.dc V1 0 1.8
