Version 4
SHEET 1 880 680
WIRE 112 -48 48 -48
WIRE 352 -48 272 -48
WIRE 48 -16 48 -48
WIRE 272 -16 272 -48
WIRE 112 16 112 -48
WIRE 352 16 352 -48
WIRE 48 128 48 64
WIRE 272 128 272 64
WIRE -48 208 -144 208
WIRE 176 208 128 208
WIRE 384 208 352 208
WIRE -144 224 -144 208
WIRE -144 336 -144 304
FLAG 112 16 0
FLAG 352 16 0
FLAG -144 336 0
FLAG 384 208 Y
IOPIN 384 208 Out
SYMBOL NOT_Sym 32 208 R0
SYMATTR InstName X1
SYMBOL NOT_Sym 256 208 R0
SYMATTR InstName X2
SYMBOL voltage -144 208 R0
SYMATTR InstName V1
SYMATTR Value PULSE(0 1.8 0 0 0 5n 10n)
SYMBOL voltage 48 80 R180
WINDOW 0 24 96 Left 2
WINDOW 3 24 16 Left 2
SYMATTR InstName V2
SYMATTR Value 1.8
SYMBOL voltage 272 80 R180
WINDOW 0 24 96 Left 2
WINDOW 3 24 16 Left 2
SYMATTR InstName V3
SYMATTR Value 1.8
TEXT -184 80 Left 2 !.dc V1 0 1.8
TEXT -232 0 Left 2 ;19BEC1211
TEXT -176 136 Left 2 !;tran 20n
