Version 4
SHEET 1 928 728
WIRE 256 -64 256 -128
WIRE 256 -64 16 -64
WIRE 272 -64 256 -64
WIRE 512 -64 272 -64
WIRE 16 -32 16 -64
WIRE -48 48 -160 48
WIRE 176 64 112 64
WIRE -48 80 -112 80
WIRE 176 128 176 64
WIRE 176 128 -64 128
WIRE -112 144 -112 80
WIRE 176 144 -112 144
WIRE 272 160 272 -64
WIRE 272 160 16 160
WIRE 512 160 512 -64
WIRE -64 240 -64 128
WIRE -48 240 -64 240
WIRE 448 240 304 240
WIRE 176 256 176 144
WIRE 176 256 112 256
WIRE 304 256 304 240
WIRE 304 256 176 256
WIRE 704 256 608 256
WIRE 832 256 704 256
WIRE -48 272 -192 272
WIRE 448 272 384 272
WIRE 272 336 272 160
WIRE 512 336 272 336
WIRE -192 352 -192 272
WIRE -192 352 -320 352
WIRE 272 352 272 336
WIRE 272 352 16 352
WIRE 384 352 384 272
WIRE 656 352 384 352
WIRE 704 368 704 256
WIRE 704 368 384 368
WIRE 176 384 176 256
WIRE 176 384 -64 384
WIRE 384 416 384 368
WIRE 448 416 384 416
WIRE -64 432 -64 384
WIRE -48 432 -64 432
WIRE 656 432 656 352
WIRE 656 432 608 432
WIRE 832 432 656 432
WIRE -192 448 -192 352
WIRE -48 448 -192 448
WIRE 128 448 112 448
WIRE 448 448 128 448
WIRE -48 464 -64 464
WIRE 128 512 128 448
WIRE 128 512 -16 512
WIRE -64 528 -64 464
WIRE 144 528 -64 528
WIRE -16 544 -16 512
WIRE -16 544 -64 544
WIRE 272 544 272 352
WIRE 272 544 16 544
WIRE -64 624 -64 544
WIRE -48 624 -64 624
WIRE 144 640 144 528
WIRE 144 640 112 640
WIRE -48 656 -320 656
WIRE -160 720 -160 48
WIRE 144 720 144 640
WIRE 144 720 -160 720
FLAG 832 256 Q
IOPIN 832 256 Out
FLAG 832 432 QQ
IOPIN 832 432 Out
FLAG 256 -128 VDD
IOPIN 256 -128 In
FLAG -320 352 CP
IOPIN -320 352 In
FLAG -320 656 D
IOPIN -320 656 In
FLAG 176 256 S
FLAG 128 448 R
SYMBOL Nand_Sym 0 64 R0
SYMATTR InstName X1
SYMBOL Nand_Sym 0 256 R0
SYMATTR InstName X2
SYMBOL Nand3_Sym 0 448 R0
SYMATTR InstName X3
SYMBOL Nand_Sym 0 640 R0
SYMATTR InstName X4
SYMBOL Nand_Sym 496 256 R0
SYMATTR InstName X5
SYMBOL Nand_Sym 496 432 R0
SYMATTR InstName X6
TEXT 400 536 Left 2 ;19BEC1211 Tom Michael Shibu
