Version 4
SHEET 1 880 680
WIRE 304 -32 224 -32
WIRE 224 -16 224 -32
WIRE 304 80 304 -32
WIRE -704 96 -704 64
WIRE 224 160 224 64
WIRE 160 224 -16 224
WIRE 400 224 288 224
WIRE -704 272 -704 176
WIRE 160 272 -16 272
WIRE 400 272 288 272
WIRE -272 336 -272 288
WIRE -272 464 -272 416
FLAG 304 80 0
FLAG -272 464 0
FLAG 400 224 Q
IOPIN 400 224 Out
FLAG -272 288 CP
IOPIN -272 288 Out
FLAG -16 272 D
IOPIN -16 272 In
FLAG -16 224 CP
IOPIN -16 224 In
FLAG -704 272 0
FLAG -704 64 D
IOPIN -704 64 Out
FLAG 400 272 QQ
IOPIN 400 272 Out
SYMBOL voltage -272 320 R0
WINDOW 3 -168 115 Left 2
SYMATTR Value PULSE(0 1.8 5n 1f 1f 5n 10n)
SYMATTR InstName CP
SYMBOL voltage 224 80 R180
WINDOW 0 24 96 Left 2
WINDOW 3 24 16 Left 2
SYMATTR InstName V3
SYMATTR Value 1.8
SYMBOL voltage -704 80 R0
WINDOW 3 -215 103 Left 2
WINDOW 123 0 0 Left 0
WINDOW 39 0 0 Left 0
SYMATTR Value PULSE(0 1.8 10n 1f 1f 10n 20n)
SYMATTR InstName D
SYMBOL D_Flipflop 224 240 R0
SYMATTR InstName X1
TEXT -152 88 Left 2 !.tran 200n
TEXT -288 -8 Left 2 ;19BEC1211 Tom Michael Shibu
